Circuit: * Z:\Github\mainboard\hardware\design\inhibit_sim\inhibits.asc

Per .tran options, skipping operating point for transient analysis.

Date: Mon May 23 15:58:18 2022
Total elapsed time: 0.223 seconds.

tnom = 27
temp = 27
method = modified trap
totiter = 2914
traniter = 2914
tranpoints = 1248
accept = 1194
rejected = 54
matrix size = 72
fillins = 72
solver = Normal
Matrix Compiler1: 8.76 KB object code size  2.4/0.9/[0.6]
Matrix Compiler2: 7.35 KB object code size  0.6/0.9/[0.4]

