Circuit: * Z:\Github\mainboard\hardware\design\inhibit_sim\inhibits.asc

Per .tran options, skipping operating point for transient analysis.

Date: Fri Jun 17 09:15:49 2022
Total elapsed time: 0.108 seconds.

tnom = 27
temp = 27
method = modified trap
totiter = 2919
traniter = 2919
tranpoints = 1237
accept = 1186
rejected = 51
matrix size = 72
fillins = 72
solver = Normal
Matrix Compiler1: 8.76 KB object code size  2.6/1.0/[0.5]
Matrix Compiler2: 7.35 KB object code size  0.6/0.9/[0.4]

